tests/data/smart-ds/p1uhs10_1247/p1uhs10_1247--p1udt14394/hc_pv_deployments/random/2/5/PVSystems.dss
// PV Scenario for 692.0660000000003 kW total size, Scenario type random, Deployment 2 and penetration 5% (PV to load ratio) 
! =====================PV SCENARIO FILE==============================
! ===================== SMALL PV ==============================
New PVSystem.p1ulv9126_1_2_3_pv phases=3 bus1=p1ulv9126.1.2.3 kv=0.48 irradiance=1 Pmpp=136.32 pctPmpp=100 kVA=136.32 conn=delta %cutin=0.1 %cutout=0.1 Vmaxpu=1.2 
New PVSystem.p1ulv40580_1_2_pv phases=2 bus1=p1ulv40580.1.2 kv=0.208 irradiance=1 Pmpp=30.6 pctPmpp=100 kVA=30.6 conn=delta %cutin=0.1 %cutout=0.1 Vmaxpu=1.2 
New PVSystem.p1ulv12018_1_2_pv phases=2 bus1=p1ulv12018.1.2 kv=0.208 irradiance=1 Pmpp=6.097 pctPmpp=100 kVA=6.097 conn=delta %cutin=0.1 %cutout=0.1 Vmaxpu=1.2 
! ===================== LARGE PV ==============================
New PVSystem.p1udt15908_1_2_3_pv phases=3 bus1=p1udt15908.1.2.3 kv=12.47 irradiance=1 Pmpp=200 pctPmpp=100 kVA=200 conn=delta %cutin=0.1 %cutout=0.1 Vmaxpu=1.2 
